# generated using pymatgen
data_CuPN2
_symmetry_space_group_name_H-M   'P 1'
_cell_length_a   4.96727545
_cell_length_b   4.96727545
_cell_length_c   4.96727545
_cell_angle_alpha   126.70850105
_cell_angle_beta   126.70850105
_cell_angle_gamma   78.72675562
_symmetry_Int_Tables_number   1
_chemical_formula_structural   CuPN2
_chemical_formula_sum   'Cu2 P2 N4'
_cell_volume   76.23331383
_cell_formula_units_Z   2
loop_
 _symmetry_equiv_pos_site_id
 _symmetry_equiv_pos_as_xyz
  1  'x, y, z'
loop_
 _atom_site_type_symbol
 _atom_site_label
 _atom_site_symmetry_multiplicity
 _atom_site_fract_x
 _atom_site_fract_y
 _atom_site_fract_z
 _atom_site_occupancy
  Cu  Cu0  1  0.50000000  0.50000000  0.00000000  1
  Cu  Cu1  1  0.25000000  0.75000000  0.50000000  1
  P  P2  1  -0.00000000  0.00000000  0.00000000  1
  P  P3  1  0.75000000  0.25000000  0.50000000  1
  N  N4  1  0.37500000  0.96019592  0.08519592  1
  N  N5  1  0.87500000  0.28980408  0.91480408  1
  N  N6  1  0.71019592  0.62500000  0.58519592  1
  N  N7  1  0.03980408  0.12500000  0.41480408  1
